LTspice 24.0.12 for Windows
Circuit: * C:\Users\silva\Documents\GitHub\Capstone_Electrical\Multiple Gains_milestone2.asc
Start Time: Tue Apr 28 21:04:03 2026
solver = Normal
Maximum thread count: 8
tnom = 27
temp = 27
method = modified trap
WARNING: Less than two connections to node debug.  This node is used by d3.
Direct Newton iteration failed to find .op point.  (Use ".option noopiter" to skip.)
Starting Gmin stepping
Increasing initial diagonal Gmin to 100
Increasing initial diagonal Gmin to 1000
Gmin = 1000
Gmin = 107.374
Gmin = 11.5292
Gmin = 1.23794
Gmin = 0.132923
Gmin = 0.0142725
Gmin = 0.0015325
Gmin = 0.00016455
Gmin = 1.76685e-05
Gmin = 1.89714e-06
vernier = 0.5
vernier = 0.25
vernier = 0.125
Gmin = 9.419e-07
vernier = 0.0625
vernier = 0.03125
vernier = 0.015625
Gmin = 9.41592e-07
vernier = 0.0208333
vernier = 0.0277778
Gmin = 8.90465e-07
vernier = 0.037037
vernier = 0.0493827
Gmin = 8.15182e-07
vernier = 0.0658435
Gmin = 7.06573e-07
vernier = 0.0877914
vernier = 0.117055
Gmin = 5.59647e-07
vernier = 0.156073
vernier = 0.208098
Gmin = 3.87765e-07
vernier = 0.104049
vernier = 0.0520245
vernier = 0.0260122
vernier = 0.0130061
vernier = 0.00650306
vernier = 0.00325153
vernier = 0.00162576
vernier = 0.000812882
vernier = 0.000406441
Gmin = 3.87765e-07
Gmin = 0
Gmin stepping failed

Starting source stepping with srcstepmethod=0
Source Step = 3.0303%
Source Step = 28.0303%
vernier = 0.0625
Source Step = 27.2934%
Source Step = 27.323%
Source Step = 27.3526%
Source Step = 27.3822%
Source Step = 27.4118%
Source Step = 27.4414%
vernier = 0.00146484
Source Step = 27.4843%
Source Step = 27.5287%
Source Step = 27.5731%
Source Step = 27.6175%
Source Step = 27.6619%
vernier = 0.00219727
Source Step = 27.724%
Source Step = 27.7906%
Source Step = 27.8572%
Source Step = 27.9238%
Source Step = 27.9904%
vernier = 0.0032959
Source Step = 28.0802%
Source Step = 28.1801%
Source Step = 28.28%
Source Step = 28.3799%
Source Step = 28.4797%
vernier = 0.00494385
Source Step = 28.6096%
Source Step = 28.7594%
Source Step = 28.9092%
Source Step = 29.059%
Source Step = 29.2088%
vernier = 0.00741577
Source Step = 29.3961%
Source Step = 29.6208%
Source Step = 29.8455%
Source Step = 30.0703%
Source Step = 30.295%
vernier = 0.0111237
Source Step = 30.5646%
Source Step = 30.9017%
Source Step = 31.2388%
Source Step = 31.5759%
Source Step = 31.913%
vernier = 0.0166855
Source Step = 32.3006%
Source Step = 32.8062%
Source Step = 33.3119%
Source Step = 33.8175%
Source Step = 34.3231%
vernier = 0.0250282
Source Step = 34.8793%
Source Step = 35.6377%
Source Step = 36.3961%
Source Step = 37.1546%
Source Step = 37.913%
vernier = 0.0375423
Source Step = 38.7094%
Source Step = 39.847%
Source Step = 40.9847%
Source Step = 42.1223%
Source Step = 43.2599%
Source Step = 44.3976%
vernier = 0.0563135
Source Step = 46.1041%
Source Step = 47.8105%
Source Step = 49.517%
Source Step = 51.2235%
Source Step = 52.9299%
vernier = 0.0844703
Source Step = 55.4043%
Source Step = 57.964%
Source Step = 60.5237%
Source Step = 63.0834%
Source Step = 65.6431%
vernier = 0.126705
Source Step = 69.2267%
Source Step = 73.0663%
Source Step = 76.9058%
Source Step = 80.7454%
Source Step = 84.585%
vernier = 0.190058
Source Step = 89.7684%
Source Step = 95.5277%
Source Step = 98.4254%
Starting source stepping with srcstepmethod=1
Source Step = 3.0303%
Source Step = 33.3333%
Source Step = 63.6364%
Source Step = 93.9394%
Source Step = 100%
vernier = 0.25
Source Step = 99.3788%
Source Step = 99.8523%
Source Step = 100%
Source stepping succeeded in finding the operating point.

Total elapsed time: 1.880 seconds.

