LTspice 24.0.12 for Windows
Circuit: * C:\Users\silva\Documents\GitHub\Capstone_Electrical\she940\Draft2.asc
Start Time: Thu Apr  9 16:28:21 2026
solver = Normal
Maximum thread count: 8
tnom = 27
temp = 27
method = modified trap
.OP point found by inspection.
Total elapsed time: 0.575 seconds.

