LTspice 24.0.12 for Windows
Circuit: * C:\Users\silva\Documents\GitHub\Capstone_Electrical\she940\Multiple Gains.asc
Start Time: Wed Apr  1 14:24:48 2026
solver = Normal
Maximum thread count: 8
tnom = 27
temp = 27
method = modified trap
WARNING: Less than two connections to node debug.  This node is used by d3.
Direct Newton iteration failed to find .op point.  (Use ".option noopiter" to skip.)
Starting Gmin stepping
Increasing initial diagonal Gmin to 100
Increasing initial diagonal Gmin to 1000
Gmin = 1000
Gmin = 107.374
Gmin = 11.5292
Gmin = 1.23794
Gmin = 0.132923
Gmin = 0.0142725
Gmin = 0.0015325
Gmin = 0.00016455
Gmin = 1.76685e-05
Gmin = 1.89714e-06
vernier = 0.5
vernier = 0.25
vernier = 0.125
Gmin = 9.419e-07
vernier = 0.0625
vernier = 0.03125
vernier = 0.015625
Gmin = 9.41592e-07
vernier = 0.0208333
vernier = 0.0277778
Gmin = 8.90465e-07
vernier = 0.037037
vernier = 0.0493827
Gmin = 8.15182e-07
vernier = 0.0658435
Gmin = 7.06573e-07
vernier = 0.0877914
vernier = 0.117055
Gmin = 5.59647e-07
vernier = 0.156073
vernier = 0.208098
Gmin = 3.87765e-07
vernier = 0.104049
vernier = 0.0520245
vernier = 0.0260122
Gmin = 3.75415e-07
vernier = 0.034683
vernier = 0.046244
Gmin = 3.43875e-07
vernier = 0.0616586
Gmin = 2.99621e-07
vernier = 0.0822114
vernier = 0.109615
Gmin = 2.38009e-07
vernier = 0.146154
vernier = 0.194871
Gmin = 1.65304e-07
vernier = 0.0974357
vernier = 0.0487178
vernier = 0.0243589
vernier = 0.0121795
vernier = 0.00608973
vernier = 0.00304487
Gmin = 1.4332e-07
vernier = 0.00152243
vernier = 0.000761216
vernier = 0.000570912
vernier = 0.000428184
Gmin = 0
Gmin stepping failed

Starting source stepping with srcstepmethod=0
Source Step = 3.0303%
Source Step = 28.0303%
Source Step = 29.9716%
Source Step = 30.4451%
Source Step = 30.9186%
Source Step = 31.392%
Source Step = 31.8655%
vernier = 0.0234375
Source Step = 32.4337%
Source Step = 33.1439%
Source Step = 33.8542%
Source Step = 34.5644%
Source Step = 35.2746%
vernier = 0.0351562
Source Step = 36.0914%
Source Step = 37.1567%
Source Step = 38.2221%
Source Step = 39.2874%
Source Step = 40.3527%
vernier = 0.0527344
Source Step = 41.5246%
Source Step = 43.1226%
Source Step = 44.7206%
Source Step = 46.3187%
Source Step = 47.9167%
vernier = 0.0791016
Source Step = 49.5946%
Source Step = 51.9916%
Source Step = 54.3886%
Source Step = 56.7856%
Source Step = 57.5047%
Source Step = 58.104%
Source Step = 58.7032%
Source Step = 59.3025%
Source Step = 59.9018%
vernier = 0.0296631
Source Step = 60.7107%
Source Step = 61.6096%
Source Step = 62.5085%
Source Step = 63.4074%
Source Step = 64.3063%
vernier = 0.0444946
Source Step = 65.4748%
Source Step = 66.8231%
Source Step = 68.1715%
Source Step = 69.5198%
Source Step = 70.8681%
vernier = 0.0667419
Source Step = 72.5535%
Source Step = 74.576%
Source Step = 76.5985%
Source Step = 78.621%
Source Step = 80.6434%
vernier = 0.100113
Source Step = 83.0704%
Source Step = 86.1041%
Source Step = 89.1379%
Source Step = 92.1716%
vernier = 0.0250282
Source Step = 92.2095%
Source Step = 92.3991%
Source Step = 92.5887%
Source Step = 92.7783%
Source Step = 92.9679%
vernier = 0.00938559
Source Step = 93.205%
Source Step = 93.4894%
Source Step = 93.7738%
Source Step = 94.0582%
Source Step = 94.3426%
vernier = 0.0140784
Source Step = 94.6839%
Source Step = 95.1105%
Source Step = 95.5371%
Source Step = 95.9637%
Source Step = 96.3904%
vernier = 0.0211176
Source Step = 96.881%
Source Step = 97.5209%
Source Step = 98.1608%
Source Step = 98.8008%
Source Step = 99.4407%
vernier = 0.0316764
Source stepping succeeded in finding the operating point.

Total elapsed time: 1.526 seconds.

