LTspice 24.0.12 for Windows
Circuit: * C:\Users\silva\Documents\GitHub\Capstone_Electrical\she940\Multiple Gains.asc
Start Time: Mon Mar 23 21:50:15 2026
solver = Normal
Maximum thread count: 8
tnom = 27
temp = 27
method = modified trap
WARNING: Less than two connections to node v1.  This node is used by d2.
WARNING: Less than two connections to node debug.  This node is used by d3.
Direct Newton iteration failed to find .op point.  (Use ".option noopiter" to skip.)
Starting Gmin stepping
Increasing initial diagonal Gmin to 100
Increasing initial diagonal Gmin to 1000
Gmin = 1000
Gmin = 107.374
Gmin = 11.5292
Gmin = 1.23794
Gmin = 0.132923
Gmin = 0.0142725
Gmin = 0.0015325
Gmin = 0.00016455
Gmin = 1.76685e-05
Gmin = 1.89714e-06
vernier = 0.5
vernier = 0.25
vernier = 0.125
Gmin = 9.419e-07
vernier = 0.0625
vernier = 0.03125
vernier = 0.015625
Gmin = 9.48891e-07
vernier = 0.0208333
vernier = 0.0277778
Gmin = 8.97367e-07
vernier = 0.037037
vernier = 0.0493827
Gmin = 8.21502e-07
vernier = 0.0658435
Gmin = 7.12051e-07
vernier = 0.0877914
vernier = 0.117055
Gmin = 5.63985e-07
vernier = 0.156073
vernier = 0.208098
Gmin = 3.90771e-07
vernier = 0.104049
vernier = 0.0520245
Gmin = 3.06941e-07
vernier = 0.0260122
vernier = 0.034683
Gmin = 2.89555e-07
vernier = 0.046244
vernier = 0.0616586
Gmin = 2.5935e-07
vernier = 0.0822114
Gmin = 2.17016e-07
vernier = 0.109615
vernier = 0.146154
Gmin = 1.6235e-07
vernier = 0.194871
vernier = 0.259828
Gmin = 1.02899e-07
vernier = 0.346438
Gmin = 4.9589e-08
vernier = 0.461917
vernier = 0.615889
Gmin = 1.54155e-08
vernier = 0.307945
vernier = 0.153972
vernier = 0.0769862
vernier = 0.0384931
vernier = 0.0192465
vernier = 0.00962327
vernier = 0.00481163
vernier = 0.00240582
Gmin = 1.33586e-08
vernier = 0.00120291
vernier = 0.000601454
vernier = 0.000451091
Gmin = 0
Gmin stepping failed

Starting source stepping with srcstepmethod=0
Source Step = 3.0303%
Source Step = 18.9394%
Source Step = 26.5152%
Source Step = 27.8883%
Source Step = 28.3617%
Source Step = 28.8352%
Source Step = 29.3087%
Source Step = 29.7822%
vernier = 0.0234375
Source Step = 30.3504%
Source Step = 31.0606%
Source Step = 31.7708%
Source Step = 32.4811%
Source Step = 33.1913%
vernier = 0.0351562
Source Step = 34.008%
Source Step = 35.0734%
Source Step = 36.1387%
Source Step = 37.2041%
vernier = 0.00878906
Source Step = 37.1575%
Source Step = 37.224%
Source Step = 37.2906%
Source Step = 37.3572%
Source Step = 37.4238%
vernier = 0.0032959
Source Step = 37.497%
Source Step = 37.5969%
Source Step = 37.6968%
Source Step = 37.7967%
Source Step = 37.8965%
vernier = 0.00494385
Source Step = 38.0014%
Source Step = 38.1512%
Source Step = 38.301%
Source Step = 38.4509%
Source Step = 38.6007%
Source Step = 38.7505%
vernier = 0.00741577
Source Step = 38.9752%
Source Step = 39.1999%
Source Step = 39.4246%
Source Step = 39.6494%
Source Step = 39.8741%
vernier = 0.0111237
Source Step = 40.1999%
Source Step = 40.537%
Source Step = 40.8741%
Source Step = 41.2112%
Source Step = 41.5482%
vernier = 0.0166855
Source Step = 42.0202%
Source Step = 42.5258%
Source Step = 43.0314%
Source Step = 43.537%
Source Step = 44.0426%
vernier = 0.0250282
Source Step = 44.7252%
Source Step = 45.4837%
Source Step = 46.2421%
Source Step = 47.0005%
Source Step = 47.759%
vernier = 0.0375423
Source Step = 48.7449%
Source Step = 49.8826%
Source Step = 51.0202%
Source Step = 52.1579%
Source Step = 53.2955%
vernier = 0.0563135
Source Step = 54.7176%
Source Step = 56.424%
Source Step = 58.1305%
Source Step = 59.837%
Source Step = 61.5434%
vernier = 0.0844703
Source Step = 63.5912%
Source Step = 64.8231%
Starting source stepping with srcstepmethod=1
Source Step = 3.0303%
Source stepping failed

Pseudo Transient succeeded in finding the operating point at 331.515 ms.
Total elapsed time: 1.592 seconds.

