LTspice 24.0.12 for Windows
Circuit: * C:\Users\silva\Documents\GitHub\Capstone_Electrical\she940\Multiple Gains.asc
Start Time: Wed Apr  1 12:21:25 2026
solver = Normal
Maximum thread count: 8
tnom = 27
temp = 27
method = modified trap
WARNING: Less than two connections to node debug.  This node is used by d3.
Direct Newton iteration failed to find .op point.  (Use ".option noopiter" to skip.)
Starting Gmin stepping
Increasing initial diagonal Gmin to 100
Increasing initial diagonal Gmin to 1000
Gmin = 1000
Gmin = 107.374
Gmin = 11.5292
Gmin = 1.23794
Gmin = 0.132923
Gmin = 0.0142725
Gmin = 0.0015325
Gmin = 0.00016455
Gmin = 1.76685e-05
Gmin = 1.89714e-06
vernier = 0.5
vernier = 0.25
vernier = 0.125
Gmin = 9.419e-07
vernier = 0.0625
vernier = 0.03125
vernier = 0.015625
Gmin = 9.48891e-07
vernier = 0.0208333
vernier = 0.0277778
Gmin = 8.97367e-07
vernier = 0.037037
vernier = 0.0493827
Gmin = 8.21502e-07
vernier = 0.0658435
Gmin = 7.12051e-07
vernier = 0.0877914
vernier = 0.117055
Gmin = 5.63985e-07
vernier = 0.156073
vernier = 0.208098
Gmin = 3.90771e-07
vernier = 0.104049
vernier = 0.0520245
Gmin = 3.57034e-07
vernier = 0.0693659
vernier = 0.0924879
Gmin = 2.939e-07
vernier = 0.123317
vernier = 0.164423
Gmin = 2.15891e-07
vernier = 0.21923
vernier = 0.109615
Gmin = 1.48444e-07
vernier = 0.0548076
vernier = 0.0274038
Gmin = 1.38692e-07
vernier = 0.0365384
vernier = 0.0487178
Gmin = 1.25782e-07
vernier = 0.0649571
vernier = 0.0866095
Gmin = 1.07787e-07
vernier = 0.115479
vernier = 0.0577396
vernier = 0.0288698
vernier = 0.0144349
vernier = 0.00721745
Gmin = 9.6839e-08
vernier = 0.00360873
vernier = 0.00180436
vernier = 0.000902182
vernier = 0.000451091
Gmin = 0
Gmin stepping failed

Starting source stepping with srcstepmethod=0
Source Step = 3.0303%
Source Step = 18.9394%
Source Step = 26.5152%
Source Step = 29.8769%
Source Step = 30.3504%
Source Step = 30.8239%
Source Step = 31.2973%
Source Step = 31.7708%
vernier = 0.0234375
Source Step = 32.2917%
Source Step = 33.0019%
Source Step = 33.7121%
Source Step = 34.4223%
Source Step = 35.1326%
vernier = 0.0351562
Source Step = 35.8783%
Source Step = 36.9437%
Source Step = 37.0968%
Starting source stepping with srcstepmethod=1
Source Step = 3.0303%
Source Step = 33.3333%
Source Step = 63.6364%
Source Step = 93.9394%
Source Step = 100%
Source Step = 100%
Source Step = 100%
Source Step = 100%
Source stepping succeeded in finding the operating point.

Total elapsed time: 1.299 seconds.

