LTspice 24.0.12 for Windows
Circuit: * C:\Users\silva\Documents\GitHub\Capstone_Electrical\she940\Splits_negative_positive.asc
Start Time: Wed Mar 18 13:51:01 2026
solver = Normal
Maximum thread count: 8
tnom = 27
temp = 27
method = modified trap
WARNING: Less than two connections to node v1.  This node is used by d2.
WARNING: Less than two connections to node debug.  This node is used by d3.
Direct Newton iteration failed to find .op point.  (Use ".option noopiter" to skip.)
Starting Gmin stepping
Increasing initial diagonal Gmin to 100
Increasing initial diagonal Gmin to 1000
Gmin = 1000
Gmin = 107.374
Gmin = 11.5292
Gmin = 1.23794
Gmin = 0.132923
Gmin = 0.0142725
Gmin = 0.0015325
Gmin = 0.00016455
Gmin = 1.76685e-05
Gmin = 1.89714e-06
vernier = 0.5
vernier = 0.25
Gmin = 4.97323e-07
vernier = 0.125
vernier = 0.166667
Gmin = 3.69856e-07
vernier = 0.222222
Gmin = 2.27107e-07
vernier = 0.296296
vernier = 0.395061
Gmin = 1.01486e-07
vernier = 0.526748
vernier = 0.702331
Gmin = 2.89555e-08
vernier = 0.936441
vernier = 0.46822
vernier = 0.23411
Gmin = 8.06597e-09
vernier = 0.117055
vernier = 0.0585276
vernier = 0.0292638
vernier = 0.0146319
vernier = 0.00731595
vernier = 0.00365797
vernier = 0.00182899
vernier = 0.000914493
vernier = 0.000457247
Gmin = 0
Gmin = 0
Gmin stepping failed

Starting source stepping with srcstepmethod=0
Source Step = 3.0303%
Source Step = 23.4848%
Source Step = 31.0606%
Source Step = 31.8655%
Source Step = 32.339%
Source Step = 32.8125%
Source Step = 33.286%
Source Step = 33.7595%
vernier = 0.0234375
Source Step = 34.3277%
Source Step = 35.0379%
Source Step = 35.7481%
Source Step = 36.4583%
Source Step = 37.1686%
vernier = 0.00585938
Source Step = 37.1375%
Source Step = 37.1819%
Source Step = 37.2263%
Source Step = 37.2707%
Source Step = 37.315%
vernier = 0.00219727
Source Step = 37.3639%
Source Step = 37.4305%
Source Step = 37.497%
Source Step = 37.5636%
Source Step = 37.6302%
vernier = 0.0032959
Source Step = 37.7001%
Source Step = 37.8%
Source Step = 37.8999%
Source Step = 37.9997%
Source Step = 38.0996%
Source Step = 38.1995%
vernier = 0.00494385
Source Step = 38.3493%
Source Step = 38.4991%
Source Step = 38.6489%
Source Step = 38.7988%
Source Step = 38.9486%
vernier = 0.00741577
Source Step = 39.1658%
Source Step = 39.3905%
Source Step = 39.6152%
Source Step = 39.84%
Source Step = 40.0647%
vernier = 0.0111237
Source Step = 40.3793%
Source Step = 40.7164%
Source Step = 41.0534%
Source Step = 41.3905%
Source Step = 41.7276%
vernier = 0.0166855
Source Step = 42.1827%
Source Step = 42.6883%
Source Step = 43.1939%
Source Step = 43.6995%
Source Step = 44.2052%
vernier = 0.0250282
Source Step = 44.8625%
Source Step = 45.6209%
Source Step = 46.3793%
Source Step = 47.1378%
Source Step = 47.8962%
vernier = 0.0375423
Source Step = 48.8442%
Source Step = 49.9819%
Source Step = 51.1195%
Source Step = 52.2572%
Source Step = 53.3948%
vernier = 0.0563135
Source Step = 54.76%
Source Step = 56.4665%
Source Step = 58.1729%
Source Step = 59.8794%
Source Step = 61.5859%
vernier = 0.0844703
Source Step = 63.5483%
Source Step = 66.108%
Source Step = 68.6677%
Source Step = 71.2274%
Source Step = 73.7871%
vernier = 0.126705
Source Step = 76.6028%
Source Step = 80.4424%
Source Step = 84.2819%
Source Step = 88.1215%
Source Step = 91.961%
Source Step = 92.513%
Source Step = 92.7529%
Source Step = 92.9929%
Source Step = 93.0829%
Source Step = 93.1429%
Source Step = 93.2029%
Source Step = 93.2629%
Source Step = 93.3229%
vernier = 0.00296966
Source Step = 93.4009%
Source Step = 93.4909%
Source Step = 93.5808%
Source Step = 93.6708%
Source Step = 93.7608%
vernier = 0.00445449
Source Step = 93.8733%
Source Step = 94.0083%
Source Step = 94.1433%
Source Step = 94.2783%
Source Step = 94.4133%
vernier = 0.00668173
Source Step = 94.5752%
Source Step = 94.6663%
Source Step = 94.717%
Source Step = 94.7676%
Source Step = 94.8182%
Source Step = 94.8688%
vernier = 0.00250565
Source Step = 94.9321%
Source Step = 95.008%
Source Step = 95.084%
Source Step = 95.1599%
Source Step = 95.2358%
vernier = 0.00375847
Source Step = 95.3269%
Source Step = 95.4408%
Source Step = 95.5547%
Source Step = 95.6686%
Source Step = 95.7825%
vernier = 0.00563771
Source Step = 95.9135%
Source Step = 96.0843%
Source Step = 96.2552%
Source Step = 96.426%
Source Step = 96.5968%
vernier = 0.00845657
Source Step = 96.7848%
Source Step = 97.041%
Source Step = 97.2973%
Source Step = 97.5535%
Source Step = 97.8098%
vernier = 0.0126848
Source Step = 98.0789%
Source Step = 98.4633%
Source Step = 98.8476%
Source Step = 99.232%
Source Step = 99.6164%
Source Step = 100%
vernier = 0.0190273
Source stepping succeeded in finding the operating point.

Total elapsed time: 1.710 seconds.

