LTspice 24.0.12 for Windows
Circuit: * C:\Users\silva\Documents\GitHub\Capstone_Electrical\she940\Splits_negative_positive.asc
Start Time: Sun Mar 22 23:03:41 2026
solver = Normal
Maximum thread count: 8
tnom = 27
temp = 27
method = modified trap
WARNING: Less than two connections to node v1.  This node is used by d2.
WARNING: Less than two connections to node debug.  This node is used by d3.
Direct Newton iteration failed to find .op point.  (Use ".option noopiter" to skip.)
Starting Gmin stepping
Increasing initial diagonal Gmin to 100
Increasing initial diagonal Gmin to 1000
Gmin = 1000
Gmin = 107.374
Gmin = 11.5292
Gmin = 1.23794
Gmin = 0.132923
Gmin = 0.0142725
Gmin = 0.0015325
Gmin = 0.00016455
Gmin = 1.76685e-05
vernier = 0.5
vernier = 0.25
vernier = 0.125
Gmin = 1.7358e-05
vernier = 0.166667
vernier = 0.222222
Gmin = 1.12027e-05
vernier = 0.296296
vernier = 0.395061
Gmin = 5.64634e-06
vernier = 0.526748
Gmin = 1.89938e-06
vernier = 0.702331
vernier = 0.936441
Gmin = 3.38301e-07
vernier = 1
Gmin = 3.7746e-08
vernier = 0.5
vernier = 0.25
Gmin = 7.91592e-09
vernier = 0.125
vernier = 0.0625
vernier = 0.03125
vernier = 0.015625
vernier = 0.0078125
vernier = 0.00390625
vernier = 0.00195312
vernier = 0.000976562
vernier = 0.000488281
Gmin = 0
Gmin = 0
Gmin stepping failed

Starting source stepping with srcstepmethod=0
Source Step = 3.0303%
Source Step = 23.4848%
Source Step = 31.0606%
Source Step = 38.6364%
Source Step = 46.2121%
Source Step = 53.7879%
vernier = 0.375
Source Step = 62.1212%
Source Step = 73.4848%
Source Step = 82.0076%
vernier = 0.0234375
Source Step = 82.4337%
Source Step = 83.1439%
Source Step = 83.8542%
Source Step = 84.5644%
Source Step = 85.2746%
vernier = 0.0351562
Source Step = 86.3045%
Source Step = 87.3698%
Source Step = 88.4351%
Source Step = 89.5005%
Source Step = 90.5658%
vernier = 0.0527344
Source Step = 92.0573%
Source Step = 93.1359%
Source Step = 93.5355%
Source Step = 93.935%
Source Step = 94.3345%
Source Step = 94.6341%
Source Step = 94.734%
Source Step = 94.8338%
Source Step = 94.9337%
Source Step = 95.0336%
vernier = 0.00494385
Source Step = 95.1385%
Source Step = 95.2883%
Source Step = 95.4381%
Source Step = 95.5879%
Source Step = 95.7377%
Source Step = 95.8875%
vernier = 0.00741577
Source Step = 96.1122%
Source Step = 96.337%
Source Step = 96.5617%
Source Step = 96.7864%
Source Step = 97.0111%
vernier = 0.0111237
Source Step = 97.337%
Source Step = 97.6741%
Source Step = 98.0111%
Source Step = 98.3482%
Source Step = 98.6853%
vernier = 0.0166855
Source Step = 99.1572%
Source Step = 99.6628%
Source stepping succeeded in finding the operating point.

Total elapsed time: 1.153 seconds.

